/*--------------------------------*- C++ -*----------------------------------*\
| =========                 |                                                 |
| \\      /  F ield         | OpenFOAM: The Open Source CFD Toolbox           |
|  \\    /   O peration     | Version:  2.0.1                                 |
|   \\  /    A nd           | Web:      www.OpenFOAM.com                      |
|    \\/     M anipulation  |                                                 |
\*---------------------------------------------------------------------------*/
FoamFile
{
    version     2.0;
    format      ascii;
    class       dictionary;
    location    "constant";
    object      transportProperties;
}
// * * * * * * * * * * * * * * * * * * * * * * * * * * * * * * * * * * * * * //

phases (water air);

// Two-phase flow properties for interFALFlow
nu_droplet  1.004e-5;
nu_ambient  1.51e-4;
rho_droplet 998.3;
rho_ambient 1.2;

water
{
    transportModel  Newtonian;
    nu              nu [ 0 2 -1 0 0 0 0 ] $nu_droplet;
    rho             rho [ 1 -3 0 0 0 0 0 ] $rho_droplet;
}

air
{
    transportModel  Newtonian;
    nu              nu [ 0 2 -1 0 0 0 0 ] $nu_ambient;
    rho             rho [ 1 -3 0 0 0 0 0 ] $rho_ambient;
}

sigma           sigma [ 1 0 -2 0 0 0 0 ] 0.072;

surfaceForces
{
  sigma 0.072;
  surfaceTensionForceModel RDF;
  accelerationForceModel gravity;
  deltaFunctionModel alphaCSF;
}

// Acoustic properties used by the coupling model
soundSpeed      343;
f               25250;
rhol            998.3;
rhog            1.2;
cg              343;
cl              1480;
kg              #eval{1.0/($rhog*$cg*$cg)};
kl              #eval{1.0/($rhol*$cl*$cl)};
k               #eval{2.0*pi()*$f/$soundSpeed};
L               0.008;

PMLType         rectangle;
PMLMax          (0.029 0.01764 100);
PMLMin          (-100 -0.01 -100);
sigmaMax        2000000;
po              3;
// ************************************************************************* //
