/*--------------------------------*- C++ -*----------------------------------* \
| =========                 |                                                 |
| \\      /  F ield         | OpenFOAM: The Open Source CFD Toolbox           |
|  \\    /   O peration     | Version:  v1806                                 |
|   \\  /    A nd           | Web:      www.OpenFOAM.com                      |
|    \\/     M anipulation  |                                                 |
\*---------------------------------------------------------------------------*/
FoamFile
{
    version     2.0;
    format      ascii;
    class       dictionary;
    object      thermophysicalProperties;
}
// * * * * * * * * * * * * * * * * * * * * * * * * * * * * * * * * * * * * * //
//luis: Originally from TPF CoffeePot example

thermoType
{
    type            heSolidThermo;
    mixture         pureMixture;
    transport       constIso;
    thermo          hConst;
    equationOfState rhoConst;
    specie          specie;
    energy          sensibleEnthalpy;
}

mixture
{
    specie
    {
        molWeight   101;	//12; //luis: rough estimate based on the density...
    }

    transport
    {
        kappa   40;
    }

    thermodynamics
    {
        Hf      0;
        Cp      763;
    }

    equationOfState
    {
        rho     3970;
    }
}

// ************************************************************************* //
